CHEMBL1210558
                    3D
 Structure written by MMmdl.
 35 36  0  0  1  0            999 V2000
    0.1394   -0.0847   -0.1495 C   0  0  0  0  0  0
   -0.8065   -1.1101   -0.3705 C   0  0  0  0  0  0
   -2.0391   -0.6961   -0.1793 N   0  0  0  0  0  0
   -1.9193    0.5839    0.1653 N   0  0  0  0  0  0
   -0.6259    1.0230    0.2037 C   0  0  0  0  0  0
   -0.5729   -2.5498   -0.7731 C   0  0  0  0  0  0
   -0.2745    2.4445    0.5759 C   0  0  0  0  0  0
    1.6507   -0.1618   -0.2741 C   0  0  0  0  0  0
    2.3234   -0.5660    1.0432 C   0  0  0  0  0  0
    3.1988    0.3122    1.5660 N   0  0  0  0  0  0
    2.0478   -1.6464    1.5674 O   0  0  0  0  0  0
    3.9473    0.1375    2.8128 C   0  0  0  0  0  0
    4.8473   -1.0982    2.8700 C   0  0  0  0  0  0
    4.5163   -2.1416    3.7427 C   0  0  0  0  0  0
    5.3178   -3.2797    3.8231 C   0  0  0  0  0  0
    6.4626   -3.3829    3.0347 C   0  0  0  0  0  0
    6.8056   -2.3462    2.1675 C   0  0  0  0  0  0
    6.0070   -1.2039    2.0823 C   0  0  0  0  0  0
    6.4838    0.0567    0.9966 Cl  0  0  0  0  0  0
    7.4562   -4.7906    3.1335 Cl  0  0  0  0  0  0
   -2.7244    1.1568    0.3747 H   0  0  0  0  0  0
    0.4861   -2.7844   -0.8788 H   0  0  0  0  0  0
   -1.0466   -2.7839   -1.7268 H   0  0  0  0  0  0
   -0.9750   -3.2438   -0.0346 H   0  0  0  0  0  0
    0.8022    2.6150    0.5641 H   0  0  0  0  0  0
   -0.6252    2.6960    1.5771 H   0  0  0  0  0  0
   -0.7197    3.1625   -0.1131 H   0  0  0  0  0  0
    1.9431   -0.8868   -1.0342 H   0  0  0  0  0  0
    2.0514    0.7902   -0.6268 H   0  0  0  0  0  0
    3.3005    1.2084    1.1123 H   0  0  0  0  0  0
    4.5732    1.0198    2.9510 H   0  0  0  0  0  0
    3.2561    0.1590    3.6577 H   0  0  0  0  0  0
    3.6295   -2.0774    4.3565 H   0  0  0  0  0  0
    5.0481   -4.0798    4.4967 H   0  0  0  0  0  0
    7.6958   -2.4277    1.5607 H   0  0  0  0  0  0
  1  5  2  0  0  0
  1  8  1  0  0  0
  1  2  1  0  0  0
  2  6  1  0  0  0
  2  3  2  0  0  0
  3  4  1  0  0  0
  4  5  1  0  0  0
  4 21  1  0  0  0
  5  7  1  0  0  0
  6 22  1  0  0  0
  6 23  1  0  0  0
  6 24  1  0  0  0
  7 25  1  0  0  0
  7 26  1  0  0  0
  7 27  1  0  0  0
  8  9  1  0  0  0
  8 28  1  0  0  0
  8 29  1  0  0  0
  9 10  1  0  0  0
  9 11  2  0  0  0
 10 12  1  0  0  0
 10 30  1  0  0  0
 12 13  1  0  0  0
 12 31  1  0  0  0
 12 32  1  0  0  0
 13 14  2  0  0  0
 13 18  1  0  0  0
 14 15  1  0  0  0
 14 33  1  0  0  0
 15 16  2  0  0  0
 15 34  1  0  0  0
 16 17  1  0  0  0
 16 20  1  0  0  0
 17 18  2  0  0  0
 17 35  1  0  0  0
 18 19  1  0  0  0
M  END
> <s_m_entry_id>
19

> <s_m_entry_name>
active.1

> <s_m_Source_Path>
/home/dsoler

> <s_m_Source_File>
active.sdf

> <i_m_Source_File_Index>
1

> <s_ppw_group_name_backup>
active-imp1

> <s_ppw_entry_id_backup>
4

> <b_ppw_prepared>
1

> <b_ppw_assigned_bond_orders>
1

> <b_ppw_added_hydrogens>
1

> <b_ppw_treated_metals>
1

> <b_ppw_created_disulfur>
1

> <b_ppw_deleted_far_waters>
1

> <s_m_source_file>
ligprep_2.maegz

> <i_m_source_file_index>
1

> <i_lp_mmshare_version>
36015

> <i_f3d_flags>
0

> <r_lp_tautomer_probability>
1

> <r_epik_Ionization_Penalty>
  0.0003

> <r_epik_Ionization_Penalty_Charging>
  0.0000

> <r_epik_Ionization_Penalty_Neutral>
  0.0003

> <r_epik_State_Penalty>
  0.0000

> <r_epik_Charging_Adjusted_Penalty>
0

> <i_epik_Tot_Q>
0

> <i_epik_Tot_abs_Q>
0

> <s_lp_Force_Field>
OPLS3

> <r_lp_Energy>
7.95410887317792

> <b_lp_Chiralities_Consistent>
1

> <s_lp_Variant>
CHEMBL1210558-1

> <s_m_job_name>
ligprep_2

> <s_m_subgroup_title>
ligprep_2-out1

> <s_m_subgroupid>
ligprep_2-out1

> <b_m_subgroup_collapsed>
0

$$$$
CHEMBL1210559
                    3D
 Structure written by MMmdl.
 36 36  0  0  1  0            999 V2000
    0.1394   -0.0847   -0.1495 C   0  0  0  0  0  0
   -0.8065   -1.1101   -0.3705 C   0  0  0  0  0  0
   -2.0391   -0.6961   -0.1793 N   0  0  0  0  0  0
   -1.9193    0.5839    0.1653 N   0  0  0  0  0  0
   -0.6259    1.0230    0.2037 C   0  0  0  0  0  0
   -0.5729   -2.5498   -0.7731 C   0  0  0  0  0  0
   -0.2745    2.4445    0.5759 C   0  0  0  0  0  0
    1.6507   -0.1618   -0.2741 C   0  0  0  0  0  0
    2.3234   -0.5660    1.0432 C   0  0  0  0  0  0
    3.1988    0.3122    1.5660 N   0  0  0  0  0  0
    2.0478   -1.6464    1.5674 O   0  0  0  0  0  0
    3.9473    0.1375    2.8128 C   0  0  0  0  0  0
    4.8473   -1.0982    2.8700 C   0  0  0  0  0  0
    4.5163   -2.1416    3.7427 C   0  0  0  0  0  0
    5.3178   -3.2797    3.8231 C   0  0  0  0  0  0
    6.4626   -3.3829    3.0347 C   0  0  0  0  0  0
    6.8056   -2.3462    2.1675 C   0  0  0  0  0  0
    7.4562   -4.7906    3.1335 Cl  0  0  0  0  0  0
   -2.7244    1.1568    0.3747 H   0  0  0  0  0  0
    0.4861   -2.7844   -0.8788 H   0  0  0  0  0  0
   -1.0466   -2.7839   -1.7268 H   0  0  0  0  0  0
   -0.9750   -3.2438   -0.0346 H   0  0  0  0  0  0
    0.8022    2.6150    0.5641 H   0  0  0  0  0  0
   -0.6252    2.6960    1.5771 H   0  0  0  0  0  0
   -0.7197    3.1625   -0.1131 H   0  0  0  0  0  0
    1.9431   -0.8868   -1.0342 H   0  0  0  0  0  0
    2.0514    0.7902   -0.6268 H   0  0  0  0  0  0
    3.3005    1.2084    1.1123 H   0  0  0  0  0  0
    4.5732    1.0198    2.9510 H   0  0  0  0  0  0
    3.2561    0.1590    3.6577 H   0  0  0  0  0  0
    3.6295   -2.0774    4.3565 H   0  0  0  0  0  0
    5.0481   -4.0798    4.4967 H   0  0  0  0  0  0
    7.6958   -2.4277    1.5607 H   0  0  0  0  0  0
    5.7277   -1.1725    2.2489 H   0  0  0  0  0  0
    6.8435   -1.4126    2.7288 H   0  0  0  0  0  0
    5.9551   -2.1284    1.5216 H   0  0  0  0  0  0
  1  5  2  0  0  0
  1  8  1  0  0  0
  1  2  1  0  0  0
  2  6  1  0  0  0
  2  3  2  0  0  0
  3  4  1  0  0  0
  4  5  1  0  0  0
  4 19  1  0  0  0
  5  7  1  0  0  0
  6 20  1  0  0  0
  6 21  1  0  0  0
  6 22  1  0  0  0
  7 23  1  0  0  0
  7 24  1  0  0  0
  7 25  1  0  0  0
  8  9  1  0  0  0
  8 26  1  0  0  0
  8 27  1  0  0  0
  9 10  1  0  0  0
  9 11  2  0  0  0
 10 12  1  0  0  0
 10 28  1  0  0  0
 12 13  1  0  0  0
 12 29  1  0  0  0
 12 30  1  0  0  0
 13 14  2  0  0  0
 13 34  1  0  0  0
 14 15  1  0  0  0
 14 31  1  0  0  0
 15 16  2  0  0  0
 15 32  1  0  0  0
 16 17  1  0  0  0
 16 18  1  0  0  0
 17 33  1  0  0  0
 17 35  1  0  0  0
 17 36  1  0  0  0
M  END
> <s_m_entry_id>
24

> <s_m_entry_name>
active.1

> <s_m_Source_Path>
/home/dsoler

> <s_m_Source_File>
active.sdf

> <i_m_Source_File_Index>
1

> <s_ppw_group_name_backup>
active-imp1

> <s_ppw_entry_id_backup>
4

> <b_ppw_prepared>
1

> <b_ppw_assigned_bond_orders>
1

> <b_ppw_added_hydrogens>
1

> <b_ppw_treated_metals>
1

> <b_ppw_created_disulfur>
1

> <b_ppw_deleted_far_waters>
1

> <s_m_source_file>
ligprep_2.maegz

> <i_m_source_file_index>
1

> <i_lp_mmshare_version>
36015

> <i_f3d_flags>
0

> <r_lp_tautomer_probability>
1

> <r_epik_Ionization_Penalty>
  0.0003

> <r_epik_Ionization_Penalty_Charging>
  0.0000

> <r_epik_Ionization_Penalty_Neutral>
  0.0003

> <r_epik_State_Penalty>
  0.0000

> <r_epik_Charging_Adjusted_Penalty>
0

> <i_epik_Tot_Q>
0

> <i_epik_Tot_abs_Q>
0

> <s_lp_Force_Field>
OPLS3

> <r_lp_Energy>
7.95410887317792

> <b_lp_Chiralities_Consistent>
1

> <s_lp_Variant>
CHEMBL1210558-1

> <s_m_job_name>
ligprep_2

> <s_m_subgroup_title>
ligprep_2-out1

> <s_m_subgroupid>
ligprep_2-out1

> <b_m_subgroup_collapsed>
0

$$$$
CHEMBL1222883
                    3D
 Structure written by MMmdl.
 36 37  0  0  1  0            999 V2000
   -2.1877    0.6005    0.2446 C   0  0  2  0  0  0
   -2.9474   -0.2777   -0.7333 C   0  0  0  0  0  0
   -4.3227    0.3414   -0.6351 C   0  0  0  0  0  0
   -4.1087    1.7989   -0.2219 C   0  0  0  0  0  0
   -2.8068    1.9321    0.1408 N   0  0  0  0  0  0
   -4.9874    2.6609   -0.2257 O   0  0  0  0  0  0
   -0.6804    0.6391   -0.0675 C   0  0  0  0  0  0
   -0.2522    1.3653   -0.9655 O   0  0  0  0  0  0
    0.0798   -0.1851    0.6718 N   0  0  0  0  0  0
    1.5321   -0.3271    0.5556 C   0  0  0  0  0  0
    2.0468   -0.7442   -0.8251 C   0  0  0  0  0  0
   -2.2736    3.2019    0.6428 C   0  0  0  0  0  0
    2.7847    0.1801   -1.5696 C   0  0  0  0  0  0
    3.2747   -0.1560   -2.8266 C   0  0  0  0  0  0
    3.0370   -1.4232   -3.3493 C   0  0  0  0  0  0
    2.3079   -2.3751   -2.6232 C   0  0  0  0  0  0
    1.8117   -2.0299   -1.3489 C   0  0  0  0  0  0
    0.9098   -3.1850   -0.4155 Cl  0  0  0  0  0  0
    2.0666   -3.7655   -3.2257 C   0  0  0  0  0  0
    2.6029   -4.7003   -2.4403 F   0  0  0  0  0  0
    0.7572   -3.9929   -3.3355 F   0  0  0  0  0  0
    2.6039   -3.9004   -4.4401 F   0  0  0  0  0  0
   -2.3066    0.2155    1.2591 H   0  0  0  0  0  0
   -2.5415   -0.1785   -1.7427 H   0  0  0  0  0  0
   -2.9178   -1.3260   -0.4337 H   0  0  0  0  0  0
   -4.8619    0.2768   -1.5807 H   0  0  0  0  0  0
   -4.9242   -0.1532    0.1290 H   0  0  0  0  0  0
   -0.3621   -0.7158    1.4087 H   0  0  0  0  0  0
    2.0137    0.5926    0.8941 H   0  0  0  0  0  0
    1.8510   -1.0791    1.2782 H   0  0  0  0  0  0
   -2.9744    4.0292    0.5204 H   0  0  0  0  0  0
   -1.3579    3.4678    0.1148 H   0  0  0  0  0  0
   -2.0387    3.1130    1.7036 H   0  0  0  0  0  0
    2.9738    1.1695   -1.1785 H   0  0  0  0  0  0
    3.8389    0.5672   -3.3973 H   0  0  0  0  0  0
    3.4297   -1.6554   -4.3283 H   0  0  0  0  0  0
  1  2  1  0  0  0
  1  7  1  0  0  0
  1  5  1  0  0  0
  1 23  1  0  0  0
  2  3  1  0  0  0
  2 24  1  0  0  0
  2 25  1  0  0  0
  3  4  1  0  0  0
  3 26  1  0  0  0
  3 27  1  0  0  0
  4  6  2  0  0  0
  4  5  1  0  0  0
  5 12  1  0  0  0
  7  8  2  0  0  0
  7  9  1  0  0  0
  9 10  1  0  0  0
  9 28  1  0  0  0
 10 11  1  0  0  0
 10 29  1  0  0  0
 10 30  1  0  0  0
 11 13  2  0  0  0
 11 17  1  0  0  0
 12 31  1  0  0  0
 12 32  1  0  0  0
 12 33  1  0  0  0
 13 14  1  0  0  0
 13 34  1  0  0  0
 14 15  2  0  0  0
 14 35  1  0  0  0
 15 16  1  0  0  0
 15 36  1  0  0  0
 16 17  2  0  0  0
 16 19  1  0  0  0
 17 18  1  0  0  0
 19 20  1  0  0  0
 19 21  1  0  0  0
 19 22  1  0  0  0
M  END
> <s_m_entry_id>
20

> <s_m_entry_name>
active.2

> <s_m_Source_Path>
/home/dsoler

> <s_m_Source_File>
active.sdf

> <i_m_Source_File_Index>
2

> <s_ppw_group_name_backup>
active-imp1

> <s_ppw_entry_id_backup>
5

> <b_ppw_prepared>
1

> <b_ppw_assigned_bond_orders>
1

> <b_ppw_added_hydrogens>
1

> <b_ppw_treated_metals>
1

> <b_ppw_created_disulfur>
1

> <b_ppw_deleted_far_waters>
1

> <s_m_source_file>
ligprep_2.maegz

> <i_m_source_file_index>
2

> <i_lp_mmshare_version>
36015

> <i_f3d_flags>
0

> <r_lp_tautomer_probability>
1

> <r_epik_Ionization_Penalty>
  0.0000

> <r_epik_Ionization_Penalty_Charging>
  0.0000

> <r_epik_Ionization_Penalty_Neutral>
  0.0000

> <r_epik_State_Penalty>
  0.0000

> <r_epik_Charging_Adjusted_Penalty>
0

> <i_epik_Tot_Q>
0

> <i_epik_Tot_abs_Q>
0

> <s_lp_Force_Field>
OPLS3

> <r_lp_Energy>
21.3467613296731

> <b_lp_Chiralities_Consistent>
1

> <s_lp_Variant>
CHEMBL1222883-1

> <s_m_job_name>
ligprep_2

> <s_m_subgroup_title>
ligprep_2-out1

> <s_m_subgroupid>
ligprep_2-out1

> <b_m_subgroup_collapsed>
0

$$$$
CHEMBL520419
                    3D
 Structure written by MMmdl.
 63 67  0  0  1  0            999 V2000
    1.7213    7.0377    0.5732 C   0  0  0  0  0  0
    2.6730    6.3525    1.3489 C   0  0  0  0  0  0
    2.6284    4.9686    1.5528 C   0  0  0  0  0  0
    0.6663    6.3339   -0.0280 C   0  0  0  0  0  0
    0.6185    4.9534    0.1703 C   0  0  0  0  0  0
    1.5775    4.2621    0.9454 C   0  0  0  0  0  0
    1.3033    2.9184    0.9749 N   0  0  0  0  0  0
    0.2204    2.7649    0.2471 C   0  0  0  0  0  0
   -0.2369    3.9645   -0.2542 N   0  0  0  0  0  0
   -0.4147    1.4621   -0.0093 C   0  0  0  0  0  0
    0.2925    0.4114   -0.5450 C   0  0  0  0  0  0
   -0.4249   -0.8413   -0.7936 C   0  0  0  0  0  0
   -1.7303   -0.8949   -0.4791 C   0  0  0  0  0  0
   -2.4222    0.1481    0.0595 N   0  0  0  0  0  0
   -1.8515    1.3545    0.3307 C   0  0  0  0  0  0
   -2.5325    2.2531    0.8251 O   0  0  0  0  0  0
    3.6956    4.2990    2.4021 C   0  0  0  0  0  0
    1.6233    0.5440   -0.8974 N   0  0  0  0  0  0
    2.4293   -0.3291   -1.7428 C   0  0  0  0  0  0
    2.2585   -0.0602   -3.2543 C   0  0  2  0  0  0
    3.0399   -1.0695   -4.0918 C   0  0  0  0  0  0
    2.3652   -2.0975   -4.7610 C   0  0  0  0  0  0
    3.0729   -3.0252   -5.5258 C   0  0  0  0  0  0
    4.4609   -2.9343   -5.6263 C   0  0  0  0  0  0
    5.1428   -1.9146   -4.9616 C   0  0  0  0  0  0
    4.4350   -0.9865   -4.1963 C   0  0  0  0  0  0
    6.8604   -1.8005   -5.0852 Cl  0  0  0  0  0  0
    2.6228    1.2778   -3.5478 O   0  0  0  0  0  0
    1.7869    8.4160    0.3814 N   0  0  0  0  0  0
    1.9805    8.8993   -0.9988 C   0  0  0  0  0  0
    1.4639   10.3429   -1.1797 C   0  0  0  0  0  0
    2.1516   11.3133   -0.2043 C   0  0  0  0  0  0
    2.0983   10.7500    1.2261 C   0  0  0  0  0  0
    2.5764    9.2823    1.2773 C   0  0  0  0  0  0
    1.5829   12.6046   -0.2743 O   0  0  0  0  0  0
    3.4840    6.9021    1.8039 H   0  0  0  0  0  0
   -0.0821    6.8400   -0.6209 H   0  0  0  0  0  0
    0.0627   -1.7063   -1.2171 H   0  0  0  0  0  0
   -2.3548   -1.7651   -0.6188 H   0  0  0  0  0  0
   -3.4021    0.0571    0.2848 H   0  0  0  0  0  0
    3.2371    3.8081    3.2608 H   0  0  0  0  0  0
    4.4341    5.0100    2.7748 H   0  0  0  0  0  0
    4.2203    3.5421    1.8186 H   0  0  0  0  0  0
    2.0425    1.4559   -0.7800 H   0  0  0  0  0  0
    3.4728   -0.1958   -1.4544 H   0  0  0  0  0  0
    2.1961   -1.3699   -1.5183 H   0  0  0  0  0  0
    1.1986   -0.1471   -3.5012 H   0  0  0  0  0  0
    1.2902   -2.1817   -4.6910 H   0  0  0  0  0  0
    2.5451   -3.8148   -6.0405 H   0  0  0  0  0  0
    5.0048   -3.6551   -6.2193 H   0  0  0  0  0  0
    4.9700   -0.2008   -3.6823 H   0  0  0  0  0  0
    2.2848    1.5020   -4.4178 H   0  0  0  0  0  0
    3.0389    8.8402   -1.2597 H   0  0  0  0  0  0
    1.4548    8.2571   -1.7065 H   0  0  0  0  0  0
    1.6291   10.6671   -2.2080 H   0  0  0  0  0  0
    0.3835   10.3576   -1.0243 H   0  0  0  0  0  0
    3.1964   11.4223   -0.4998 H   0  0  0  0  0  0
    2.7099   11.3593    1.8925 H   0  0  0  0  0  0
    1.0782   10.8056    1.6111 H   0  0  0  0  0  0
    2.4766    8.9294    2.3048 H   0  0  0  0  0  0
    3.6351    9.2182    1.0188 H   0  0  0  0  0  0
    2.0509   13.1776    0.3373 H   0  0  0  0  0  0
   -1.0613    4.0435   -0.8314 H   0  0  0  0  0  0
  1  4  1  0  0  0
  1  2  2  0  0  0
  1 29  1  0  0  0
  2  3  1  0  0  0
  2 36  1  0  0  0
  3 17  1  0  0  0
  3  6  2  0  0  0
  4  5  2  0  0  0
  4 37  1  0  0  0
  5  9  1  0  0  0
  5  6  1  0  0  0
  6  7  1  0  0  0
  7  8  2  0  0  0
  8  9  1  0  0  0
  8 10  1  0  0  0
  9 63  1  0  0  0
 10 11  2  0  0  0
 10 15  1  0  0  0
 11 18  1  0  0  0
 11 12  1  0  0  0
 12 13  2  0  0  0
 12 38  1  0  0  0
 13 14  1  0  0  0
 13 39  1  0  0  0
 14 15  1  0  0  0
 14 40  1  0  0  0
 15 16  2  0  0  0
 17 41  1  0  0  0
 17 42  1  0  0  0
 17 43  1  0  0  0
 18 19  1  0  0  0
 18 44  1  0  0  0
 19 20  1  0  0  0
 19 45  1  0  0  0
 19 46  1  0  0  0
 20 21  1  0  0  0
 20 28  1  0  0  0
 20 47  1  0  0  0
 21 22  2  0  0  0
 21 26  1  0  0  0
 22 23  1  0  0  0
 22 48  1  0  0  0
 23 24  2  0  0  0
 23 49  1  0  0  0
 24 25  1  0  0  0
 24 50  1  0  0  0
 25 26  2  0  0  0
 25 27  1  0  0  0
 26 51  1  0  0  0
 28 52  1  0  0  0
 29 30  1  0  0  0
 29 34  1  0  0  0
 30 31  1  0  0  0
 30 53  1  0  0  0
 30 54  1  0  0  0
 31 32  1  0  0  0
 31 55  1  0  0  0
 31 56  1  0  0  0
 32 33  1  0  0  0
 32 35  1  0  0  0
 32 57  1  0  0  0
 33 34  1  0  0  0
 33 58  1  0  0  0
 33 59  1  0  0  0
 34 60  1  0  0  0
 34 61  1  0  0  0
 35 62  1  0  0  0
M  END
> <s_m_entry_id>
21

> <s_m_entry_name>
active.3

> <s_m_Source_Path>
/home/dsoler

> <s_m_Source_File>
active.sdf

> <i_m_Source_File_Index>
3

> <s_ppw_group_name_backup>
active-imp1

> <s_ppw_entry_id_backup>
6

> <b_ppw_prepared>
1

> <b_ppw_assigned_bond_orders>
1

> <b_ppw_added_hydrogens>
1

> <b_ppw_treated_metals>
1

> <b_ppw_created_disulfur>
1

> <b_ppw_deleted_far_waters>
1

> <s_m_source_file>
ligprep_2.maegz

> <i_m_source_file_index>
3

> <i_lp_mmshare_version>
36015

> <i_f3d_flags>
0

> <r_lp_tautomer_probability>
0.999206294981429

> <r_epik_Ionization_Penalty>
  0.0014

> <r_epik_Ionization_Penalty_Charging>
  0.0000

> <r_epik_Ionization_Penalty_Neutral>
  0.0014

> <r_epik_State_Penalty>
  0.3776

> <r_epik_Charging_Adjusted_Penalty>
0.377591332184276

> <i_epik_Tot_Q>
0

> <i_epik_Tot_abs_Q>
0

> <s_lp_Force_Field>
OPLS3

> <r_lp_Energy>
49.4262263173585

> <b_lp_Chiralities_Consistent>
1

> <s_lp_Variant>
CHEMBL520419-1

> <s_m_job_name>
ligprep_2

> <s_m_subgroup_title>
ligprep_2-out1

> <s_m_subgroupid>
ligprep_2-out1

> <b_m_subgroup_collapsed>
0

$$$$
CHEMBL520419
                    3D
 Structure written by MMmdl.
 63 67  0  0  1  0            999 V2000
    2.4014    6.8995    0.1894 C   0  0  0  0  0  0
    1.2016    7.2877   -0.4320 C   0  0  0  0  0  0
    0.1519    6.4005   -0.7067 C   0  0  0  0  0  0
    2.5836    5.5604    0.5591 C   0  0  0  0  0  0
    1.5617    4.6397    0.3009 C   0  0  0  0  0  0
    0.3701    5.0733   -0.3236 C   0  0  0  0  0  0
   -0.3821    3.9248   -0.4108 N   0  0  0  0  0  0
    0.3498    2.8914    0.1347 C   0  0  0  0  0  0
    1.5213    3.2970    0.5699 N   0  0  0  0  0  0
   -0.1171    1.4976    0.2196 C   0  0  0  0  0  0
    0.6225    0.4570   -0.2921 C   0  0  0  0  0  0
    0.0694   -0.8954   -0.1819 C   0  0  0  0  0  0
   -1.1251   -1.0436    0.4150 C   0  0  0  0  0  0
   -1.8485   -0.0087    0.9262 N   0  0  0  0  0  0
   -1.4260    1.2850    0.8790 C   0  0  0  0  0  0
   -2.1260    2.1712    1.3696 O   0  0  0  0  0  0
   -1.1085    6.9193   -1.3755 C   0  0  0  0  0  0
    1.8224    0.6756   -0.9449 N   0  0  0  0  0  0
    2.5725   -0.2486   -1.7877 C   0  0  0  0  0  0
    2.0619   -0.3122   -3.2437 C   0  0  2  0  0  0
    2.7713   -1.4064   -4.0375 C   0  0  0  0  0  0
    2.1097   -2.6080   -4.3183 C   0  0  0  0  0  0
    2.7508   -3.6148   -5.0406 C   0  0  0  0  0  0
    4.0592   -3.4295   -5.4866 C   0  0  0  0  0  0
    4.7284   -2.2371   -5.2089 C   0  0  0  0  0  0
    4.0872   -1.2298   -4.4863 C   0  0  0  0  0  0
    6.3484   -2.0079   -5.7587 Cl  0  0  0  0  0  0
    2.1873    0.9628   -3.8495 O   0  0  0  0  0  0
    3.4253    7.8063    0.4502 N   0  0  0  0  0  0
    3.7466    8.0693    1.8651 C   0  0  0  0  0  0
    5.1878    8.5953    2.0397 C   0  0  0  0  0  0
    5.4245    9.8748    1.2191 C   0  0  0  0  0  0
    4.9492    9.6692   -0.2294 C   0  0  0  0  0  0
    3.5206    9.0844   -0.2800 C   0  0  0  0  0  0
    6.7779   10.2780    1.2663 O   0  0  0  0  0  0
    1.0644    8.3235   -0.7067 H   0  0  0  0  0  0
    3.5002    5.2379    1.0320 H   0  0  0  0  0  0
   -1.3092    3.8034   -0.7911 H   0  0  0  0  0  0
    0.5900   -1.7605   -0.5638 H   0  0  0  0  0  0
   -1.6248   -1.9918    0.5503 H   0  0  0  0  0  0
   -2.7393   -0.1715    1.3725 H   0  0  0  0  0  0
   -1.2746    6.3968   -2.3178 H   0  0  0  0  0  0
   -1.0557    7.9881   -1.5869 H   0  0  0  0  0  0
   -1.9720    6.7447   -0.7329 H   0  0  0  0  0  0
    2.1121    1.6350   -1.0733 H   0  0  0  0  0  0
    3.6195    0.0569   -1.7695 H   0  0  0  0  0  0
    2.5529   -1.2426   -1.3407 H   0  0  0  0  0  0
    0.9933   -0.5346   -3.2251 H   0  0  0  0  0  0
    1.0967   -2.7663   -3.9772 H   0  0  0  0  0  0
    2.2337   -4.5387   -5.2543 H   0  0  0  0  0  0
    4.5519   -4.2115   -6.0459 H   0  0  0  0  0  0
    4.6126   -0.3097   -4.2733 H   0  0  0  0  0  0
    1.6531    0.9755   -4.6472 H   0  0  0  0  0  0
    3.0303    8.7846    2.2741 H   0  0  0  0  0  0
    3.6410    7.1575    2.4546 H   0  0  0  0  0  0
    5.3844    8.7856    3.0955 H   0  0  0  0  0  0
    5.8904    7.8181    1.7329 H   0  0  0  0  0  0
    4.8476   10.6878    1.6632 H   0  0  0  0  0  0
    4.9794   10.6153   -0.7713 H   0  0  0  0  0  0
    5.6293    8.9953   -0.7539 H   0  0  0  0  0  0
    3.2552    8.9245   -1.3262 H   0  0  0  0  0  0
    2.8028    9.7997    0.1263 H   0  0  0  0  0  0
    7.0236   10.4144    2.1844 H   0  0  0  0  0  0
  1  4  1  0  0  0
  1  2  2  0  0  0
  1 29  1  0  0  0
  2  3  1  0  0  0
  2 36  1  0  0  0
  3 17  1  0  0  0
  3  6  2  0  0  0
  4  5  2  0  0  0
  4 37  1  0  0  0
  5  9  1  0  0  0
  5  6  1  0  0  0
  6  7  1  0  0  0
  7  8  1  0  0  0
  7 38  1  0  0  0
  8  9  2  0  0  0
  8 10  1  0  0  0
 10 11  2  0  0  0
 10 15  1  0  0  0
 11 18  1  0  0  0
 11 12  1  0  0  0
 12 13  2  0  0  0
 12 39  1  0  0  0
 13 14  1  0  0  0
 13 40  1  0  0  0
 14 15  1  0  0  0
 14 41  1  0  0  0
 15 16  2  0  0  0
 17 42  1  0  0  0
 17 43  1  0  0  0
 17 44  1  0  0  0
 18 19  1  0  0  0
 18 45  1  0  0  0
 19 20  1  0  0  0
 19 46  1  0  0  0
 19 47  1  0  0  0
 20 21  1  0  0  0
 20 28  1  0  0  0
 20 48  1  0  0  0
 21 22  2  0  0  0
 21 26  1  0  0  0
 22 23  1  0  0  0
 22 49  1  0  0  0
 23 24  2  0  0  0
 23 50  1  0  0  0
 24 25  1  0  0  0
 24 51  1  0  0  0
 25 26  2  0  0  0
 25 27  1  0  0  0
 26 52  1  0  0  0
 28 53  1  0  0  0
 29 30  1  0  0  0
 29 34  1  0  0  0
 30 31  1  0  0  0
 30 54  1  0  0  0
 30 55  1  0  0  0
 31 32  1  0  0  0
 31 56  1  0  0  0
 31 57  1  0  0  0
 32 33  1  0  0  0
 32 35  1  0  0  0
 32 58  1  0  0  0
 33 34  1  0  0  0
 33 59  1  0  0  0
 33 60  1  0  0  0
 34 61  1  0  0  0
 34 62  1  0  0  0
 35 63  1  0  0  0
M  END
> <s_m_entry_id>
22

> <s_m_entry_name>
active.3

> <s_m_Source_Path>
/home/dsoler

> <s_m_Source_File>
active.sdf

> <i_m_Source_File_Index>
3

> <s_ppw_group_name_backup>
active-imp1

> <s_ppw_entry_id_backup>
6

> <b_ppw_prepared>
1

> <b_ppw_assigned_bond_orders>
1

> <b_ppw_added_hydrogens>
1

> <b_ppw_treated_metals>
1

> <b_ppw_created_disulfur>
1

> <b_ppw_deleted_far_waters>
1

> <s_m_source_file>
ligprep_2.maegz

> <i_m_source_file_index>
3

> <i_lp_mmshare_version>
36015

> <i_f3d_flags>
0

> <r_epik_Ionization_Penalty>
  0.0016

> <r_epik_Ionization_Penalty_Charging>
  0.0000

> <r_epik_Ionization_Penalty_Neutral>
  0.0016

> <r_epik_State_Penalty>
  0.4467

> <r_epik_Charging_Adjusted_Penalty>
0.446682681074111

> <i_epik_Tot_Q>
0

> <i_epik_Tot_abs_Q>
0

> <s_lp_Force_Field>
OPLS3

> <r_lp_Energy>
49.0873256930983

> <b_lp_Chiralities_Consistent>
1

> <s_lp_Variant>
CHEMBL520419-2

> <s_m_job_name>
ligprep_2

> <s_m_subgroup_title>
ligprep_2-out1

> <s_m_subgroupid>
ligprep_2-out1

> <b_m_subgroup_collapsed>
0

$$$$
